resultados_barras_SIN.csv
ID_Barra,Tensao_Mag_pu,Desvio_Tensao_QLIM_pu,Corte_Reativo_VLIM_pu
11950,0.9979513861390095,0.0,0.016669768019135812
45120,1.0009699249681523,0.0,-0.0015116545178293756
1703,1.046631248288423,0.0,0.000813244822179714
7685,1.019431738641403,0.0,-0.00720623463299696
3406,1.0066090235638845,0.0,-0.007956370525464386
47756,1.0284003967089872,0.0,-0.013097207747805121
27640,1.0430489669637513,0.0,-0.04277915854532609
1090,1.0431176088867533,0.0,-0.8954600723102047
43631,0.9857926428227679,0.0,-0.014040887799065647
41511,0.9499999900085265,0.0,0.00032640389787130043
40789,0.966371845347678,0.0,0.03148321839100756
45340,0.962778809318323,-0.03722119068167694,-0.003833786622847603
3220,0.9840750347516577,0.0,0.008993164682956467
422,1.0253869073539106,0.0,-0.044935606970619754
46806,0.9656293938168904,0.0,0.006984932022523856
4030,1.0116590692005392,0.0,-0.01474409192081382
8060,0.995427224529031,0.0,-0.003259499243239255
43893,1.0032194269309904,0.0,0.005833956550143221
8660,1.0351559510292145,0.0,-0.03561091363958963
47586,1.0064282161232463,0.0,0.0019295074182965279
3855,1.0011863842641322,0.0,-0.013344173289356429
3163,1.0487420499284819,0.0,-0.007512254906058169
9523,1.0294318563233522,0.0,0.026905552684123295
2989,1.0498314802436686,0.0,-0.0029346467353793676
4357,0.9989357391105325,0.0,0.01203483350407675
844,0.9906026921055276,0.0,-0.020696053947836694
59,1.019604640341501,0.0,-0.09641332028759339
41063,1.0179220529798843,0.0,-0.0019938629343693864
43268,1.0332624528642982,0.0,0.021186048728795523
27617,0.9688278875014075,0.0,0.03613625439916011
9329,0.9499999900030068,0.0,-0.020464591797503887
79,0.9499999900000169,0.0,-0.9491279588565906
17639,1.0161035007519514,0.0,0.0024844493966156463
6803,1.045990147476186,0.0,-0.02162368380960177
21970,1.0051067620811225,0.0,0.003213639372960184
2920,1.014784311000456,0.0,-0.008761168455068063
7654,1.0250305957989039,0.0,-0.007468020073547215
7438,1.0079379029835236,0.0,-0.006212509927061925
2783,0.9669583789011811,0.0,-0.022178207835485686
7710,0.9685625438845963,0.0,-0.007110206419533123
11925,1.0473353903222808,0.0,-0.021694919744839204
732,1.0015131157621247,0.0,-0.008937987772837604
8714,1.0475366660139285,0.0,-0.010434536653034076
47258,1.0027564548852155,0.0,-0.006753507934199678
42357,0.9787533340437159,0.0,0.03454939345373633
7292,0.9965768181435487,0.0,0.03394012687830374
5978,1.0161816500909724,0.00818165009097232,0.0
8918,1.0148857980108503,0.0,-0.07096624127477265
1526,1.019107202377408,0.0,-0.013060173487509926
6816,1.0367092420910302,0.0,0.016902000030114772
436,0.9754222267102387,0.0,0.04276395462917473
42373,1.0500000104999454,0.0,1.7850283924601956e-13
4951,1.0392993659248988,0.0,0.05123075880676265
3044,1.0079484850693436,0.0,-0.007832871031538022
9558,1.0172972652815524,0.0,0.005207549057684029
3089,1.0052267393953653,0.0,-0.010554894745651699
43574,1.0200832459156357,0.0,-0.004326789956689939
5401,1.0141607806789559,0.0,0.010027926314272857
4051,1.0034622789630605,0.0,0.003239154537284936
145,1.0043058998273258,0.0,-0.008673450137605076
46307,1.0379028237321861,0.0,-0.012811008429738766
8915,1.024136577934014,0.0,-0.07239290453638028
11910,1.0206601752824778,0.0,-0.026955014903528182
5840,0.9609329678637027,0.0,0.005963248930007883
10279,1.05000000885145,0.0,-0.0002340264502355668
8298,0.9877037620088265,0.0,-0.010683610871812133
46428,1.049998753320212,0.0,-0.024814523678109032
40759,0.9699160926713993,0.0,0.007637191853677445
5566,0.9914898426132924,0.0,-0.012199159003612292
7315,0.9611432392808914,0.0,0.0061266337249959715
158,1.0442423310643527,0.0,-0.004958740487123268
3140,1.0139548474168194,0.0,-0.011757760072097199
47122,0.9877163322981501,0.0,-0.026581184737311626
1147,1.0148046065328666,0.0,-0.014115765850862817
6576,0.9698857721527381,0.0,-0.00433885790316171
21908,1.0368757085936726,0.0,-0.02890807088631128
44875,1.0362237795549205,0.0,-0.019081239827534166
10408,1.0500000104996545,0.055000010499654424,0.0
9345,0.9499999901667653,0.0,0.013703214295821536
6543,1.0098783257766142,0.0,-0.004110776512770609
5587,1.0148254929065605,0.0,-0.003804390864235137
48171,0.9669430867949175,0.0,0.008372343741792845
11646,1.0498842487049698,0.0,-0.02593151398972451
3052,1.0096521461565588,0.0,0.008296315095739139
22023,1.0061302926993405,0.0,-0.007210588889545665
43110,0.9747332313147015,0.0,-0.009433327265035988
6696,0.9787770150449284,0.0,-0.011731431601923008
44040,0.9656097047630133,0.0,-0.001346987051353001
412,1.0245739278824648,0.0,-0.015676080954077895
3877,1.017014094458717,0.0,0.003729391967210926
6001,0.9694632159923701,0.0,-0.01927550525358772
2748,0.9751695179738494,0.0,-0.02852206832043349
41924,0.9533513433125657,0.0,0.03644947656674132
8495,1.0104779144030676,0.0,-0.0020891830905041086
6235,1.0028562235824048,0.0,-0.006627014479602994
10895,1.0154006885441345,0.0,0.0023015243372478626
4643,1.0189658252006093,0.0,-0.0029251147221888165
4105,0.9849603190304481,0.0,-0.0018599544703628921
43004,0.9915938721890636,0.0,0.005549339208939994
44870,1.037121658682271,0.0,-0.01933306986447797
5550,1.0460758180827119,0.0,0.030783422012232223
795,1.0114458711279668,0.0,-0.0025621417468348873
5321,0.9956858237329999,0.0,-0.013928965352985743
43019,0.9681663040091556,0.0,-0.00913928317568421
8476,0.9971813725902855,0.0,-0.007314498403900073
7647,1.0276394046385615,0.0,-0.012826333743985383
6764,0.9635033059100729,0.0,0.0012680027110371305
43553,1.0026037213740224,0.0,0.004132501475967318
42279,1.0012507718873263,0.0,-0.010549193176470883
47664,1.022223009902274,0.0,-0.013136655426692855
41661,0.9731983397939261,0.0,0.0008866962117263779
41917,1.0233970782269242,0.0,-0.008474021927923283
13164,1.0459533896230513,0.0,-0.025278033598427972
43878,1.0438255217939874,0.0,0.007756530505698787
41024,1.0057143374975561,0.0,0.0038325085255321773
1458,0.982364955204127,0.0,-0.003734761371107009
47038,1.0143423437116699,0.0,-0.007117013755804833
47125,1.0430759282202322,0.0,-0.04599256382673581
316,1.0358412632306533,0.0,-0.024453817720593508
9452,0.9981861692913276,0.0011861692913276202,0.0
5305,1.0032037419118414,0.0,-0.01697683813997226
11680,0.990765991904448,0.0,-0.014485108116489336
4189,1.03056171824567,0.0,0.006305869248431698
7928,1.016180589517545,0.0,0.011273843907776611
356,0.9982067691432803,0.0,-0.04592165641466454
487,0.9805947670686974,0.0,0.047485459797497145
45036,0.9831251072948956,0.0,-0.012307410329399965
1398,1.0143695935437353,0.0,0.005474304016289918
2129,1.0332213836823314,0.0,0.0023374442126889183
5730,0.9890503047218557,0.0,-0.008742304902812168
42414,0.9707980574628585,0.0,0.007933471199666755
47846,1.0274447613999673,0.0,0.00028032020310206373
42266,1.0096069427040963,0.0,-0.003678918074348751
41008,1.0329192655992532,0.0,0.002804069419685942
44685,0.9868514505323495,0.0,-0.006648394385131668
46853,1.0067504063312478,0.0,-0.04338610251737738
7876,1.02411840404321,0.0,0.006614234100641296
47689,0.9731645973348726,0.0,0.0010085167555171231
10698,0.9948774649755491,0.0,0.01944239311494244
42149,1.015837254890704,0.0,-0.005180606562697795
5911,0.9573796165931345,0.0,0.012763264727866552
5202,1.0012290139374593,0.0,-0.016643446925397768
47100,1.0500000104925582,0.0,0.004109732855196693
4003,1.0258890442985036,0.0,-0.011680182228040802
8178,0.9812682120745218,0.0,0.0015099578964772133
46861,0.9728591145863642,0.0,0.000805401836683635
6867,1.0266337905198069,0.0,0.0019289070612475193
6898,0.995934935977278,0.0,-0.029718558611158147
45314,0.9791782455707012,0.0,0.001868653076018699
47694,0.9679751262821835,0.0,-0.00015066220470344417
8296,0.987907350277041,0.0,-0.012409437076199225
27606,1.0020317283866913,0.0,-0.01006827160856571
47264,0.9839602979040315,0.0,-0.009500859473359387
7584,0.9912797687247538,0.0,0.0030034024860924992
42191,1.0270486521588647,0.0,-0.00651282890217025
3917,1.0100365443172783,0.0,0.00762005104802978
305,0.9813853518060884,-0.003614648193911602,0.0
42263,0.9896254938490535,0.0,-0.0010469518785727338
6990,1.0078933104970516,0.0,-0.002288378494065912
7754,0.9913590781110458,0.0,0.00286378445663963
1064,0.9997942794965617,0.0,-0.002355230025438954
44046,0.9827934973436746,0.0,0.0032595872995057214
42231,1.019305920720172,0.0,-0.0051729992080464275
5726,0.9713686626924392,0.0,-0.009871498150589238
4597,0.9726575529026513,-0.016342447097348726,0.0
7090,0.9974295209067584,0.0,-0.014982259336556718
7476,1.0345940632369097,0.0,-0.010923699380820244
4513,0.9817800211312578,0.0,-0.02081275767568949
43534,1.0500000104891871,0.0,7.928738232181104e-11
321,1.0141556537375693,0.0,-0.013675405286845563
46639,0.9926770011995861,0.0,0.006749984347517859
4018,1.0236314137890732,0.0,0.018203759625686617
8250,0.9880325040881155,0.0,0.02310137713260839
45157,0.9967358921462656,0.0,0.006356381663782147
248,0.9803941100380099,0.0,0.012150158899229251
7487,1.0444332291830327,0.0,0.022050479551699635
3609,1.0053667610658006,0.0,-0.010607722450002742
41396,1.0319359645217046,0.0,-0.0024420771233343197
43515,1.0465214538834549,0.0,0.0022281811415817295
46918,1.0081750891702186,0.0,-0.014569474188232576
5477,0.9805354987514725,0.0,-0.007006862207268422
5149,0.9849533377139924,0.0,0.0013037167894744443
3971,0.9855319557218327,0.0,0.02037626051837455
42421,0.9778654527095985,0.0,-0.04619982682562086
7513,1.0417770003957165,0.0,-0.005224664302877053
4473,1.049444124812122,0.0,-0.04798055827390734
9009,0.9951035652495166,0.0,0.0024727767441317713
8189,0.968231068326933,0.0,-0.03612433566095076
131,1.0091018660897453,0.0,0.0007914277336397551
44822,0.9846956368789838,0.0,0.000752981385236469
5802,0.9821262093512388,0.0,-0.02093765104463016
6557,0.9922657939137137,0.0,0.00254314324178547
6381,0.986256622682376,0.0,-0.009506545760692799
11656,1.0484778623122553,0.0,-0.0004840988114860076
43679,0.9906774337727056,0.0,-0.008180262804849863
1927,0.999039424248773,0.0,0.0006767764987293455
10558,1.0268009462384333,0.0,-0.0010832698610659915
40027,1.0255940267371952,0.0,0.021110851313944475
5623,1.0430758294881064,0.0,-0.04599257253356728
4630,0.9712058162714604,0.0,-0.004657991895981772
...
